6
9
.tran 100p 100n 0
6
1
+2V5
V
1
+5V
V
1
amp1+
V
1
amp1-
V
1
amp2+
V
1
amp2-
V
9
.tran 100p 100n 0
2
1
diff_ch1
V
1
diff_ch2
V
9
.tran 100p 100n 0
2
1
diff_amp1
V
1
diff_amp2
V
9
.tran 100p 100n 0
3
1
adc1+
V
1
adc1-
V
1
cm_adc
V
2
.dc Vdut1 -40 40 10m
8
2
Rc1
I
1
+5V
V
1
amp1+
V
1
amp1-
V
1
ch1+
V
1
ch1-
V
1
clamp+
V
1
clamp-
V
1
.ac dec 1000 1 1G
6
9
diff_adc1
V
9
diff_adc2
V
9
diff_amp1
V
9
diff_amp2
V
9
diff_ch1
V
9
diff_ch2
V
